 41
 
 C       -0.03757       -0.17959       -0.07408 
 C        0.02086       -0.06088        1.32034 
 N        1.36307       -0.07845        1.66329 
 C        2.13017       -0.20168        0.54106 
 C        1.28348       -0.26745       -0.55772 
 C       -1.01592        0.05806        2.29781 
 N       -2.34629        0.09508        1.96252 
 C       -3.13527        0.21399        3.09499 
 C       -2.25211        0.25178        4.19261 
 C       -0.94884        0.15592        3.70427 
 C       -4.55128        0.27517        3.04112 
 N       -5.33927        0.40878        4.16588 
 C       -6.67624        0.44106        3.82622 
 C       -6.73538        0.32132        2.41836 
 C       -5.43374        0.21982        1.93747 
 C       -7.71232        0.57153        4.78598 
 N       -9.05325        0.61552        4.44093 
 C       -9.83947        0.74425        5.55854 
 C       -8.96634        0.78371        6.66681 
 C       -7.65952        0.67758        6.19034 
 C       -11.2660        0.81412        5.49173 
 C       -12.1407        0.75859        4.39914 
 C       -13.4568        0.87256        4.89071 
 C       -13.3720        0.99598        6.27144 
 N       -12.0536        0.95895        6.62232 
 H       -4.98565        0.48079        5.10713 
 H       -7.63555        0.30746        1.82031 
 H       -5.14703        0.11312        0.90088 
 H       -2.69505        0.05347        1.01745 
 H       -2.53358        0.33616        5.23303 
 H       -0.04627        0.15285        4.29838 
 H       -9.40946        0.56906        3.49884 
 H       -6.76348        0.67405        6.79531 
 H       -9.25939        0.87646        7.70273 
 H       -11.7101        1.03495        7.56751 
 H       -14.1460        1.10573        7.01651 
 H       -11.8589        0.64511        3.36119 
 H       -14.3688        0.86544        4.31193 
 H        1.72747       -0.00544        2.60081 
 H        3.20797       -0.23349        0.60129 
 H       -0.93627       -0.20347       -0.67531 
 H        1.59223       -0.36833       -1.58784 
 
